data/NetworkN_small_2Feeders/new_load.txt
New Load.1 bus1=2.1.4 kV=0.23094010767585033 Vminpu=0.1 Vmaxpu=1.9 model=1 kW=4 pf=0.9 Phases=1
New Load.2 bus1=2.2.4 kV=0.23094010767585033 Vminpu=0.1 Vmaxpu=1.9 model=1 kW=2.7 pf=0.9 Phases=1
New Load.3 bus1=2.3.4 kV=0.23094010767585033 Vminpu=0.1 Vmaxpu=1.9 model=1 kW=1.1 pf=0.9 Phases=1
New Load.4 bus1=3.1.4 kV=0.23094010767585033 Vminpu=0.1 Vmaxpu=1.9 model=1 kW=5.5 pf=0.9 Phases=1
New Load.5 bus1=3.2.4 kV=0.23094010767585033 Vminpu=0.1 Vmaxpu=1.9 model=1 kW=1.1 pf=0.9 Phases=1
New Load.6 bus1=3.3.4 kV=0.23094010767585033 Vminpu=0.1 Vmaxpu=1.9 model=1 kW=2.5 pf=0.9 Phases=1

New Load.7  bus1=4.1.4 kV=0.23094 Vminpu=0.1 Vmaxpu=1.9 model=1 kW=4.0 pf=0.9 Phases=1
New Load.8  bus1=4.2.4 kV=0.23094 Vminpu=0.1 Vmaxpu=1.9 model=1 kW=2.7 pf=0.9 Phases=1
New Load.9  bus1=4.3.4 kV=0.23094 Vminpu=0.1 Vmaxpu=1.9 model=1 kW=1.1 pf=0.9 Phases=1
New Load.10 bus1=5.1.4 kV=0.23094 Vminpu=0.1 Vmaxpu=1.9 model=1 kW=5.5 pf=0.9 Phases=1
New Load.11 bus1=5.2.4 kV=0.23094 Vminpu=0.1 Vmaxpu=1.9 model=1 kW=1.1 pf=0.9 Phases=1
New Load.12 bus1=5.3.4 kV=0.23094 Vminpu=0.1 Vmaxpu=1.9 model=1 kW=2.5 pf=0.9 Phases=1
